[General]
network = LoRaNetAnalysis
rng-class = "cMersenneTwister"
record-eventlog = false
**.cmdenv-log-level = trace

# network features
**.result-recording-modes = default
**.numberOfGateways = 1
**.loRaGW[0].numUdpApps = 1
**.loRaGW[0].packetForwarder.localPort = 2000
**.loRaGW[0].packetForwarder.destPort = 1000
**.loRaGW[0].packetForwarder.destAddresses = "networkServer"
**.loRaGW[0].packetForwarder.indexNumber = 0

**.loRaGW[1].numUdpApps = 1
**.loRaGW[1].packetForwarder.localPort = 2000
**.loRaGW[1].packetForwarder.destPort = 1000
**.loRaGW[1].packetForwarder.destAddresses = "networkServer"
**.loRaGW[1].packetForwarder.indexNumber = 1

**.networkServer.numUdpApps = 1
**.networkServer.**.evaluateADRinServer = false
**.networkServer.udpApp[0].typename = "NetworkServerApp"
**.networkServer.udpApp[0].destAddresses = "loRaGW[0]"
**.networkServer.udpApp[0].destPort = 2000
**.networkServer.udpApp[0].localPort = 1000
**.networkServer.udpApp[0].adrMethod = ${"avg"}
**.networkServer.**.frmPLength = 0      # ACk -> 0 => 12 bytes PL PHY if empty frame

**.numberOfNodes = 10
**.numberOfPacketsToSend = 0 #0 means infinite number of packets
sim-time-limit = 7d
warmup-period = 1d
simtime-resolution = -11

# **.timeToFirstPacket = exponential(500s)
# **.timeToNextPacket = exponential(${400, 500, 800, 1000, 4000}s)
**.alohaChannelModel = false

#nodes features
**.loRaNodes[*].**.initFromDisplayString = false
**.loRaNodes[*].**.evaluateADRinNode = false
**.loRaNodes[*].**.initialLoRaSF = intuniform(7,12)
**.loRaNodes[*].**.initialLoRaBW = 125 kHz
**.loRaNodes[*].**.initialLoRaCR = 4
**.loRaNodes[*].**.initialLoRaTP = (2dBm + 3dBm*intuniform(0, 4))  #3dBm
**.loRaNodes[*].LoRaNic.mac.maxQueueSize = 1
**.loRaNodes[*].**.confirmedTx = false #  use transmission with ACK?
#**.loRaNodes[*].**scanningSF = false
**.loRaNodes[*].**.frmPLength = 7      # => 20 bytes PL PHY

# deployment of nodes in a circle with radius=maxGatewayDistance and gateway at gatewayX,gatewayY
#**.loRaNodes[*].deploymentType = "circle"
#**.loRaNodes[*].maxGatewayDistance = 120.0
#**.loRaNodes[*].gatewayX = 240
#**.loRaNodes[*].gatewayY = 240

# predetermined/random deployment of nodes in a square square area
**.loRaNodes[*].**.initialX = uniform(0m, 480m)  #220m
**.loRaNodes[*].**.initialY = uniform(0m, 480m)  #220m

#gateway features
**.LoRaGWNic.radio.iAmGateway = true
**.loRaGW[*].**.initFromDisplayString = false
**.loRaGW[0].**.initialX = 240m   #uniform(0m, 50m)
**.loRaGW[0].**.initialY = 240m

#power consumption features
**.loRaNodes[*].LoRaNic.radio.energyConsumerType = "LoRaEnergyConsumer"
**.loRaNodes[*].**.energySourceModule = "IdealEpEnergyStorage"
**.loRaNodes[*].LoRaNic.radio.energyConsumer.configFile = xmldoc("energyConsumptionParameters.xml")

#general features
**.sigma = 0
**.constraintAreaMinX = 0m
**.constraintAreaMinY = 0m
**.constraintAreaMinZ = 0m
**.constraintAreaMaxX = 480m
**.constraintAreaMaxY = 480m
**.constraintAreaMaxZ = 0m

LoRaNetAnalysis.**.radio.separateTransmissionParts = false
LoRaNetAnalysis.**.radio.separateReceptionParts = false

**.delayer.config = xmldoc("cloudDelays.xml")
**.radio.radioMediumModule = "LoRaMedium"
**.LoRaMedium.pathLossType = "LoRaLogNormalShadowing"
**.minInterferenceTime = 0s
**.displayAddresses = false


[Config S1]
description = "ADR basic avg"
record-eventlog = false

**.numberOfNodes = 50
sim-time-limit = 7d
warmup-period = 1d

**.loRaNodes[*].**.evaluateADRinNode = true
**.networkServer.**.evaluateADRinServer = true


[Config S30base]
description = "Large amount of nodes and long simulation. Variable traffic load. Configuration base "
record-eventlog = false
repeat = 10

#  deployment of nodes in a square square area
**.loRaNodes[*].**.initialY = uniform( 240m-71m, 240m+71m)
**.loRaNodes[*].**.initialX = uniform( 240m-71m, 240m+71m)

**.loRaNodes[*].**.initialLoRaTP = 14dBm
**.loRaNodes[*].**.initialLoRaSF = 7

# gateway
**.loRaGW[*].**.transmitter.power = 25.12mW  # 14dBm

sim-time-limit = 2d
warmup-period = 0d


[Config S30base-novec]
description = "Large amount of nodes and long simulation. Variable traffic load. Configuration base. No vec variables. "
record-eventlog = false
repeat = 10

#  deployment of nodes in a square square area
**.loRaNodes[*].**.initialY = uniform( 240m-71m, 240m+71m)
**.loRaNodes[*].**.initialX = uniform( 240m-71m, 240m+71m)

**.loRaNodes[*].**.initialLoRaTP = 14dBm
**.loRaNodes[*].**.initialLoRaSF = 7

# gateway
**.loRaGW[*].**.transmitter.power = 25.12mW  # 14dBm

sim-time-limit = 2d
warmup-period = 0d

**.result-recording-modes = -
**.scalar-recording = true
**.statistic-recording = false
**.vector-recording = false

[Config S30a]
description = "Based on S30base. Same as S30base config but with 2 repetitions, SFM0, and different frm payload. Some nodes with ACK tx"
extends = S30base
repeat = 2

sim-time-limit = 2d

**.numberOfNodes = ${N=100}
**.numOfConNodes = ${NC=30}
## --- confirmedTX true for loRaNodes[0..NC-1], false for loRaNodes[NC..]
**.loRaNodes[*].**.confirmedTx = ( ancestorIndex(1) < ${NC} )

**.timeToNextPacket = exponential( ${L=4000}s )
**.timeToFirstPacket = exponential( ${L}s  )


**.loRaNodes[*].**.initialLoRaSF = ${ISF=7..12}

**.loRaNodes[*].**.sfModePar = ${SFM="SFM0"}
**.loRaNodes[*].**.frmPLength = ${FRMPLL=0,7,14,21,29,38}

measurement-label = "N${N}-NC${NC}-TTNP${L}"

[Config S30b]
description = "Based on S30base. Same as S30a config but with SFM1, and different frm payload. Some nodes with ACK tx"
extends = S30base
repeat = 2

cmdenv-express-mode = true
**.cmdenv-log-level = info


sim-time-limit = 2d

**.numberOfNodes = ${N=100}
**.numOfConNodes = ${NC=30}
## --- confirmedTX true for loRaNodes[0..NC-1], false for loRaNodes[NC..]
**.loRaNodes[*].**.confirmedTx = ( ancestorIndex(1) < ${NC} )

**.timeToNextPacket = exponential( ${L=4000}s )
**.timeToFirstPacket = exponential( ${L}s  )


**.loRaNodes[*].**.initialLoRaSF = ${ISF=7..12}

**.loRaNodes[*].**.sfModePar = ${SFM="SFM1"}
**.loRaNodes[*].**.frmPLength = ${FRMPLL=0,7,15,20,25,30,35,40,45,51}

#measurement-label = "N${N}-NC${NC}-TTNP${L}"
measurement-label = "N${N}-${SFM}-NC${NC}-TTNP${L}-${FRMPLL}"

[Config S30b2]
description = "Based on S30base. Same as S30a config but with SFM1, and different frm payload. Some nodes with ACK tx"
extends = S30base
repeat = 2

cmdenv-express-mode = true
**.cmdenv-log-level = info


sim-time-limit = 2d

**.numberOfNodes = ${N=100}
**.numOfConNodes = ${NC=30}
## --- confirmedTX true for loRaNodes[0..NC-1], false for loRaNodes[NC..]
**.loRaNodes[*].**.confirmedTx = ( ancestorIndex(1) < ${NC} )

**.timeToNextPacket = exponential( ${L=200}s )
**.timeToFirstPacket = exponential( ${L}s  )


**.loRaNodes[*].**.initialLoRaSF = ${ISF=7..12}

**.loRaNodes[*].**.sfModePar = ${SFM="SFM1"}
**.loRaNodes[*].**.frmPLength = ${FRMPLL=0,7,15,20,25,30,35,40,45,51}

#measurement-label = "N${N}-NC${NC}-TTNP${L}"
measurement-label = "N${N}-${SFM}-NC${NC}-TTNP${L}-${FRMPLL}"

[Config S30b3]
description = "Based on S30base. Same as S30a config but with SFM1, and different frm payload. Some nodes with ACK tx"
extends = S30base
repeat = 2

cmdenv-express-mode = true
**.cmdenv-log-level = info


sim-time-limit = 2d

**.numberOfNodes = ${N=100}
**.numOfConNodes = ${NC=30,40,50,60,70,80,90,100}
## --- confirmedTX true for loRaNodes[0..NC-1], false for loRaNodes[NC..]
**.loRaNodes[*].**.confirmedTx = ( ancestorIndex(1) < ${NC} )

**.timeToNextPacket = exponential( ${L=200,400,800,1000,2000,4000}s )
**.timeToFirstPacket = exponential( ${L}s  )


**.loRaNodes[*].**.initialLoRaSF = ${ISF=7..12}

**.loRaNodes[*].**.sfModePar = ${SFM="SFM1"}
**.loRaNodes[*].**.frmPLength = ${FRMPLL=0,15,20,25,30,35,40,45,51,60,70,80,90,100,115,140,180,220,242}

#measurement-label = "N${N}-NC${NC}-TTNP${L}"
measurement-label = "N${N}-${SFM}-NC${NC}-TTNP${L}-${FRMPLL}"

[Config S30b3b]
description = "Based on S30base. Same as S30a config but with SFM1, and different frm payload. Some nodes with ACK tx"
# equal to S30b3 with FRMPLL={1,7}
extends = S30base
repeat = 2

cmdenv-express-mode = true
**.cmdenv-log-level = info


sim-time-limit = 2d

**.numberOfNodes = ${N=100}
**.numOfConNodes = ${NC=30,40,50,60,70,80,90,100}
## --- confirmedTX true for loRaNodes[0..NC-1], false for loRaNodes[NC..]
**.loRaNodes[*].**.confirmedTx = ( ancestorIndex(1) < ${NC} )

**.timeToNextPacket = exponential( ${L=200,400,800,1000,2000,4000}s )
**.timeToFirstPacket = exponential( ${L}s  )


**.loRaNodes[*].**.initialLoRaSF = ${ISF=7..12}

**.loRaNodes[*].**.sfModePar = ${SFM="SFM1"}
**.loRaNodes[*].**.frmPLength = ${FRMPLL=0,1,7,15,20,25,30,35,40,45,51,60,70,80,90,100,115,140,180,220,242}

#measurement-label = "N${N}-NC${NC}-TTNP${L}"
measurement-label = "N${N}-${SFM}-NC${NC}-TTNP${L}-${FRMPLL}"

[Config S30b3f]
description = "Based on S30base. N=100. Some nodes with ACK tx"
extends = S30base-novec  # to force no vec: S30base-novec
repeat = 2

cmdenv-express-mode = true
**.cmdenv-log-level = info

sim-time-limit = 2d

**.numberOfNodes = ${N=100}
**.numOfConNodes = ${NC=30,40,50,60,70,80,90,100}
## --- confirmedTX true for loRaNodes[0..NC-1], false for loRaNodes[NC..]
**.loRaNodes[*].**.confirmedTx = ( ancestorIndex(1) < ${NC} )

**.timeToNextPacket = exponential( ${L=200,400,800,1000,2000,4000,5000}s )
**.timeToFirstPacket = exponential( ${L}s  )

**.loRaNodes[*].**.initialLoRaSF = ${ISF=7..12}

**.loRaNodes[*].**.sfModePar = ${SFM="SFM1"}
**.loRaNodes[*].**.frmPLength = ${FRMPLL=0,1,7,15,20,30,40,51,80,100,115,140,180,220,242}

#measurement-label = "N${N}-NC${NC}-TTNP${L}"
measurement-label = "N${N}-${SFM}-NC${NC}-TTNP${L}-${FRMPLL}"

[Config S30b4]
description = "Based on S30base. Same as S30a config but with SFM1, and different frm payload. Some nodes with ACK tx"
extends = S30base-novec
repeat = 2

cmdenv-express-mode = true
**.cmdenv-log-level = info


sim-time-limit = 4d

**.numberOfNodes = ${N=1000}
**.numOfConNodes = ${NC=30,40,50,60,70,80,90,100,500,1000}
## --- confirmedTX true for loRaNodes[0..NC-1], false for loRaNodes[NC..]
**.loRaNodes[*].**.confirmedTx = ( ancestorIndex(1) < ${NC} )

**.timeToNextPacket = exponential( ${L=200,400,800,1000,2000,4000,5000}s )
**.timeToFirstPacket = exponential( ${L}s  )

**.loRaNodes[*].**.initialLoRaSF = ${ISF=7..12}

**.loRaNodes[*].**.sfModePar = ${SFM="SFM1"}
**.loRaNodes[*].**.frmPLength = ${FRMPLL=1,7,15,20,30,40,51,80,100,115,140,180,220,242}

#measurement-label = "N${N}-NC${NC}-TTNP${L}"
measurement-label = "N${N}-${SFM}-NC${NC}-TTNP${L}-${FRMPLL}"

[Config S30b4f]
description = "Based on S30base. Same as S30a config but with SFM1, and different frm payload. Some nodes with ACK tx"
extends = S30base-novec
repeat = 2

cmdenv-express-mode = true
**.cmdenv-log-level = info


sim-time-limit = 4d

**.numberOfNodes = ${N=1000}
**.numOfConNodes = ${NC=30,40,50,60,70,80,90,100,500,1000}
## --- confirmedTX true for loRaNodes[0..NC-1], false for loRaNodes[NC..]
**.loRaNodes[*].**.confirmedTx = ( ancestorIndex(1) < ${NC} )

**.timeToNextPacket = exponential( ${L=200,400,800,1000,2000,4000,5000}s )
**.timeToFirstPacket = exponential( ${L}s  )

**.loRaNodes[*].**.initialLoRaSF = ${ISF=7..12}

**.loRaNodes[*].**.sfModePar = ${SFM="SFM1"}
**.loRaNodes[*].**.frmPLength = ${FRMPLL=1,7,15,20,30,40,51,80,100,115,140,180,220,242}

#measurement-label = "N${N}-NC${NC}-TTNP${L}"
measurement-label = "N${N}-${SFM}-NC${NC}-TTNP${L}-${FRMPLL}"

[Config S30b5]
description = "Based on S30base. Same as S30a config but with SFM1, and different frm payload. Some nodes with ACK tx"
extends = S30base-novec
repeat = 2

cmdenv-express-mode = true
**.cmdenv-log-level = info


sim-time-limit = 4d

**.numberOfNodes = ${N=2000}
**.numOfConNodes = ${NC=30,40,50,60,70,80,90,100,500,1000,2000}
## --- confirmedTX true for loRaNodes[0..NC-1], false for loRaNodes[NC..]
**.loRaNodes[*].**.confirmedTx = ( ancestorIndex(1) < ${NC} )

**.timeToNextPacket = exponential( ${L=200,400,800,1000,2000,4000,5000}s )
**.timeToFirstPacket = exponential( ${L}s  )


**.loRaNodes[*].**.initialLoRaSF = ${ISF=7..12}

**.loRaNodes[*].**.sfModePar = ${SFM="SFM1"}
**.loRaNodes[*].**.frmPLength = ${FRMPLL=1,7,15,20,30,40,51,80,100,115,140,180,220,242}

#measurement-label = "N${N}-NC${NC}-TTNP${L}"
measurement-label = "N${N}-${SFM}-NC${NC}-TTNP${L}-${FRMPLL}"


[Config S30b6]
description = "Based on S30base. N=100. Some nodes with ACK tx"
extends = S30base
repeat = 2

cmdenv-express-mode = true
**.cmdenv-log-level = info

sim-time-limit = 2d

**.numberOfNodes = ${N=100}
**.numOfConNodes = ${NC=30,40,50,60,70,80,90,100}
## --- confirmedTX true for loRaNodes[0..NC-1], false for loRaNodes[NC..]
**.loRaNodes[*].**.confirmedTx = ( ancestorIndex(1) < ${NC} )

**.timeToNextPacket = exponential( ${L=200,400,800,1000,2000,4000,5000}s )
**.timeToFirstPacket = exponential( ${L}s  )


**.loRaNodes[*].**.initialLoRaSF = ${ISF=7..12}

**.loRaNodes[*].**.sfModePar = ${SFM="SFM1"}
**.loRaNodes[*].**.frmPLength = ${FRMPLL=1,7,15,20,30,40,51,80,100,115,140,180,220,242}

#measurement-label = "N${N}-NC${NC}-TTNP${L}"
measurement-label = "N${N}-${SFM}-NC${NC}-TTNP${L}-${FRMPLL}"

[Config S31]
description = "Based on S30base-novec. SFM1, and different frm payload. Some nodes with ACK tx. Different NC and NuC proporcion"
extends = S30base-novec
repeat = 2

cmdenv-express-mode = true
**.cmdenv-log-level = info


sim-time-limit = 4d


**.numOfConNodes = ${NC=100,500,1000,2000}
**.numberOfNodes = ${N=${NC}*1,${NC}*1.2,${NC}*1.5,${NC}*1.8,${NC}*2,${NC}*5,${NC}*10,${NC}*15,${NC}*20}
## --- confirmedTX true for loRaNodes[0..NC-1], false for loRaNodes[NC..N-1]
**.loRaNodes[*].**.confirmedTx = ( ancestorIndex(1) < ${NC} )

**.timeToNextPacket = exponential( ${L=800,1000,2000,4000,5000}s )
**.timeToFirstPacket = exponential( ${L}s  )


**.loRaNodes[*].**.initialLoRaSF = ${ISF=7..12}

**.loRaNodes[*].**.sfModePar = ${SFM="SFM1"}
**.loRaNodes[*].**.frmPLength = ${FRMPLL=1,7,15,20,30,40,51,80,100,115,140,180,220,242}

#measurement-label = "N${N}-NC${NC}-TTNP${L}"
measurement-label = "N${N}-${SFM}-NC${NC}-TTNP${L}-${FRMPLL}"

[Config S32]
description = "Based on S30base-novec. SFM1, and different frm payload. Some nodes with ACK tx. Different NC and NuC proporcion"
extends = S30base-novec
repeat = 2

cmdenv-express-mode = true
**.cmdenv-log-level = info


sim-time-limit = 4d


**.numOfConNodes = ${NC=100,500,1000,2000}
**.numberOfNodes = ${N=${NC}*1,${NC}*1.2,${NC}*1.5,${NC}*1.8,${NC}*2,${NC}*2.5,${NC}*3,${NC}*5,${NC}*8,${NC}*10}
## --- confirmedTX true for loRaNodes[0..NC-1], false for loRaNodes[NC..N-1]
**.loRaNodes[*].**.confirmedTx = ( ancestorIndex(1) < ${NC} )

**.timeToNextPacket = exponential( ${L=800,1000,2000,4000,5000}s )
**.timeToFirstPacket = exponential( ${L}s  )


**.loRaNodes[*].**.initialLoRaSF = ${ISF=7..12}

**.loRaNodes[*].**.sfModePar = ${SFM="SFM1"}
**.loRaNodes[*].**.frmPLength = ${FRMPLL=1,7,15,20,30,40,51,80,100,115,140,180,220,242}

#measurement-label = "N${N}-NC${NC}-TTNP${L}"
measurement-label = "N${N}-${SFM}-NC${NC}-TTNP${L}-${FRMPLL}"

[Config S32b]
description = "Based on S30base-novec. SFM1, and different frm payload. Some nodes with ACK tx. Different NC and NuC proporcion"
extends = S30base-novec
repeat = 5

cmdenv-express-mode = true
**.cmdenv-log-level = info


sim-time-limit = 4d


**.numOfConNodes = ${NC=100,500,1000,2000}
**.numberOfNodes = ${N=${NC}*1,${NC}*1.2,${NC}*1.5,${NC}*1.8,${NC}*2,${NC}*2.5,${NC}*3,${NC}*5,${NC}*8,${NC}*10}
## --- confirmedTX true for loRaNodes[0..NC-1], false for loRaNodes[NC..N-1]
**.loRaNodes[*].**.confirmedTx = ( ancestorIndex(1) < ${NC} )

**.timeToNextPacket = exponential( ${L=800,1000,2000,4000,5000}s )
**.timeToFirstPacket = exponential( ${L}s  )


**.loRaNodes[*].**.initialLoRaSF = ${ISF=7..12}

**.loRaNodes[*].**.sfModePar = ${SFM="SFM1"}
**.loRaNodes[*].**.frmPLength = ${FRMPLL=1,7,15,20,30,40,51,80,100,115,140,180,220,242}

#measurement-label = "N${N}-NC${NC}-TTNP${L}"
measurement-label = "N${N}-${SFM}-NC${NC}-TTNP${L}-${FRMPLL}"

[Config S33]
description = "Based on S30base-novec. SFM1, and different frm payload. No nodes with ACK tx. Several NuC values"
extends = S30base-novec
repeat = 2

cmdenv-express-mode = true
**.cmdenv-log-level = info


sim-time-limit = 1d


**.numberOfNodes = ${N=10,30,50,70,100,500,1000,2000,3000,5000,7000}
**.numOfConNodes = ${NC=0}
## --- confirmedTX false for all nodes
**.loRaNodes[*].**.confirmedTx = ( 1 == 0 )

**.timeToNextPacket = exponential( ${L=800,1000,2000,4000,5000}s )
**.timeToFirstPacket = exponential( ${L}s  )


**.loRaNodes[*].**.initialLoRaSF = ${ISF=7..12}

**.loRaNodes[*].**.sfModePar = ${SFM="SFM1"}
**.loRaNodes[*].**.frmPLength = ${FRMPLL=1,7,15,20,30,40,51,80,100,115,140,180,220,242}

#measurement-label = "N${N}-NC${NC}-TTNP${L}"
measurement-label = "N${N}-${SFM}-NC${NC}-TTNP${L}-${FRMPLL}"



[Config S30-test1u]
description = "testing the simulator. 1 node unconfirmed tx. Based in S30base"
extends = S30base
repeat = 1
cmdenv-express-mode = true
**.cmdenv-log-level = info

sim-time-limit = 1d

**.numberOfNodes = ${N=1}
**.numOfConNodes = ${NC=0}
## --- confirmedTX true for loRaNodes[0..NC-1], false for loRaNodes[NC..]
**.loRaNodes[*].**.confirmedTx = ( ancestorIndex(1) < ${NC} )

**.timeToNextPacket = exponential( ${L=200,2000,4000}s )
**.timeToFirstPacket = exponential( ${L}s )
**.loRaNodes[*].**.initialLoRaSF = ${ISF=7..12}

# **.loRaNodes[*].**.sfModePar = ${SFM="SFM0","SFM1","SFM2","SFM3"}
**.loRaNodes[*].**.sfModePar = ${SFM="SFM1"}
**.loRaNodes[*].**.frmPLength = ${FRMPLL=0,1,7,15,20,30,40,51,,80,100,115,140,180,220,242}

#measurement-label = "${SFM}-N${N}-NC${NC}-TTNP${L}"
measurement-label = "N${N}-${SFM}-NC${NC}-TTNP${L}-${FRMPLL}"

[Config S30-test1c]
description = "testing the simulator. 1 node confirmed tx. Based in S30base"
extends = S30base
repeat = 1
cmdenv-express-mode = true
**.cmdenv-log-level = info

sim-time-limit = 1d

**.numberOfNodes = ${N=1}
**.numOfConNodes = ${NC=1}
## --- confirmedTX true for loRaNodes[0..NC-1], false for loRaNodes[NC..]
**.loRaNodes[*].**.confirmedTx = ( ancestorIndex(1) < ${NC} )

***.timeToNextPacket = exponential( ${L=200,2000,4000}s )
**.timeToFirstPacket = exponential( ${L}s )
**.loRaNodes[*].**.initialLoRaSF = ${ISF=7..12}

**.loRaNodes[*].**.sfModePar = ${SFM="SFM1"}
**.loRaNodes[*].**.frmPLength = ${FRMPLL=0,1,7,15,20,30,40,51,,80,100,115,140,180,220,242}

#measurement-label = "${SFM}-N${N}-NC${NC}-TTNP${L}"
measurement-label = "N${N}-${SFM}-NC${NC}-TTNP${L}-${FRMPLL}"


[Config S30-test2nd]
description = "testing the simulator. 1 node confirmed, 1 node unconfirmed. deterministic tx. Based in S30base"
extends = S30base
repeat = 1
cmdenv-express-mode = true
**.cmdenv-log-level = info

sim-time-limit = 1d

**.numberOfNodes = ${N=2}
**.numOfConNodes = ${NC=1}
## --- confirmedTX true for loRaNodes[0..NC-1], false for loRaNodes[NC..]
**.loRaNodes[*].**.confirmedTx = ( ancestorIndex(1) < ${NC} )

***.timeToNextPacket = ${L=200,500,2000,4000}s
**.timeToFirstPacket = ${L}s
**.loRaNodes[*].**.initialLoRaSF = ${ISF=7..12}

**.loRaNodes[*].**.sfModePar = ${SFM="SFM1"}
**.loRaNodes[*].**.frmPLength = ${FRMPLL=0,1,7,15,20,30,40,51,,80,100,115,140,180,220,242}

#measurement-label = "${SFM}-N${N}-NC${NC}-TTNP${L}"
measurement-label = "N${N}-${SFM}-NC${NC}-TTNP${L}-${FRMPLL}"


[Config S30-test-20]
description = "testing the simulator. 15 node confirmed, 5 node unconfirmed. deterministic tx. Based in S30base"
extends = S30base
repeat = 1
cmdenv-express-mode = true
**.cmdenv-log-level = info

sim-time-limit = 1d

**.numberOfNodes = ${N=20}
**.numOfConNodes = ${NC=15}
## --- confirmedTX true for loRaNodes[0..NC-1], false for loRaNodes[NC..]
**.loRaNodes[*].**.confirmedTx = ( ancestorIndex(1) < ${NC} )

***.timeToNextPacket = ${L=200,500,2000,4000}s
**.timeToFirstPacket = ${L}s
**.loRaNodes[*].**.initialLoRaSF = ${ISF=7..12}

**.loRaNodes[*].**.sfModePar = ${SFM="SFM1"}
**.loRaNodes[*].**.frmPLength = ${FRMPLL=0,1,7,15,20,30,40,51,,80,100,115,140,180,220,242}

#measurement-label = "${SFM}-N${N}-NC${NC}-TTNP${L}"
measurement-label = "N${N}-${SFM}-NC${NC}-TTNP${L}-${FRMPLL}"


[Config S30-test2]
description = "testing changes in the simulator. Based in S30base"
extends = S30base
repeat = 1

sim-time-limit = 1d

**.numberOfNodes = ${N=100}
**.numOfConNodes = ${NC=30}
## --- confirmedTX true for loRaNodes[0..NC-1], false for loRaNodes[NC..]
**.loRaNodes[*].**.confirmedTx = ( ancestorIndex(1) < ${NC} )

**.timeToNextPacket = exponential( ${L=4000}s )
**.timeToFirstPacket = exponential( ${L}s  )

# **.loRaNodes[*].**.sfModePar = ${SFM="SFM0","SFM1","SFM2","SFM3"}
**.loRaNodes[*].**.sfModePar = ${SFM="SFM0"}
**.loRaNodes[*].**.frmPLength = ${FRMPLL=1}

# measurement-label = "${SFM}-N${N}-NC${NC}-TTNP${L}"


measurement-label = "N${N}-NC${NC}-TTNP${L}"


[Config S30-test]
description = "Testing behaviour packet size parameter Based in S30base"
extends = S30base
repeat = 1

sim-time-limit = 1h

**.numberOfNodes = ${N=1}
**.numOfConNodes = ${NC=0}
## --- confirmedTX true for loRaNodes[0..NC-1], false for loRaNodes[NC..]
**.loRaNodes[*].**.confirmedTx = ( ancestorIndex(1) < ${NC} )

# **.timeToNextPacket = exponential( ${L=4000}s )
# **.timeToFirstPacket = exponential( ${L}s  )
**.timeToNextPacket = ${L=400}s
**.timeToFirstPacket = ${L}s

# **.loRaNodes[*].**.sfModePar = ${SFM="SFM0","SFM1","SFM2","SFM3"}
**.loRaNodes[*].**.sfModePar = ${SFM="SFM0"}
**.loRaNodes[*].**.frmPLength = ${FRMPLL=2,7,39}

#measurement-label = "${SFM}-N${N}-NC${NC}-TTNP${L}"

measurement-label = "N${N}-NC${NC}-TTNP${L}-${SFM}-${FRMPLL}"
